*ac analysis for ceamp
Vin 1 0 ac 20mV
C1 1 2 1u
R1 2 3 25k
R2 2 0 5k
Rc 3 4 1.5k
Re 5 0 220
Rl 6 0 2k
C2 4 6 1u
Ce 5 0 100u
Vcc 3 0 DC 12V
Q1 4 2 5 QMOD1
.model QMOD1 NPN CJE=50p CJS=50p CJC=50p
* ac analysis
.ac dec 100 100 10MEG
.control
run
display
plot abs(V(6)/V(1))
.endc
.end
