*CMOS invertor
Vin 1 0 PULSE ( 0 5 5n 0n 0n 20n 20n )
Vdd 2 0 DC 5
M1 3 1 2 2 MOS1
.model MOS1 PMOS
M2 3 1 0 0 MOS2
.model MOS2 NMOS
.tran 5n 100n
.control
run
display
plot V(1) V(3)
.endc
.end
